<?xml version="1.0" encoding="UTF-8"?>

<!-- generated on 2023-04-09 13:47:16 by Eclipse SUMO sumo Version 1.16.0
-->

<configuration xmlns:xsi="http://www.w3.org/2001/XMLSchema-instance" xsi:noNamespaceSchemaLocation="http://sumo.dlr.de/xsd/sumoConfiguration.xsd">

    <input>
        <net-file value="../hello/out.net.xml"/>
        <route-files value="../hello/out.rou.xml"/>
        <!-- <route-files value="../hello/hello.rou.xml"/> -->
    </input>

</configuration>
