<?xml version="1.0" encoding="UTF-8"?>
<!-- generated on 2023-07-02 12:55:17 by Eclipse SUMO netedit Version 1.16.0
-->
<routes xmlns:xsi="http://www.w3.org/2001/XMLSchema-instance" xsi:noNamespaceSchemaLocation="http://sumo.dlr.de/xsd/routes_file.xsd">
    <!-- Routes -->
    <route id="r_0" edges="e_0"/>
    <route id="r_1" edges="e_1"/>
    <!-- Vehicles, persons and containers (sorted by depart) -->
    <vType accel="3.0" decel="6.0" id="CarA" length="5.0" minGap="2.5" maxSpeed="50.0" sigma="0.5" />
<vehicle id="1" depart="0.04" departLane="1" departPos="362.26" departSpeed="40.85" color="235,189,145" route="r_0"/>
<vehicle id="2" depart="0.04" departLane="1" departPos="251.76999999999998" departSpeed="32.04" color="18,23,153" route="r_1"/>
<vehicle id="3" depart="0.04" departLane="1" departPos="182.08" departSpeed="35.69" color="190,96,93" route="r_0"/>
<vehicle id="4" depart="0.04" departLane="2" departPos="147.18" departSpeed="42.72" color="109,229,145" route="r_1"/>
<vehicle id="5" depart="0.04" departLane="2" departPos="105.12" departSpeed="42.5" color="236,253,207" route="r_1"/>
<vehicle id="6" depart="0.04" departLane="2" departPos="241.89" departSpeed="23.27" color="29,253,128" route="r_0"/>
<vehicle id="7" depart="0.04" departLane="1" departPos="151.54" departSpeed="32.59" color="174,202,97" route="r_0"/>
<vehicle id="8" depart="0.04" departLane="1" departPos="175.46999999999997" departSpeed="31.36" color="115,14,110" route="r_1"/>
<vehicle id="9" depart="0.04" departLane="1" departPos="97.03999999999996" departSpeed="35.99" color="57,102,52" route="r_1"/>
<vehicle id="10" depart="0.04" departLane="2" departPos="201.31" departSpeed="23.21" color="10,37,77" route="r_0"/>
<vehicle id="11" depart="0.04" departLane="2" departPos="181.5" departSpeed="25.07" color="234,153,12" route="r_0"/>
<vehicle id="12" depart="0.04" departLane="1" departPos="12.56" departSpeed="35.77" color="113,38,163" route="r_0"/>
<vehicle id="13" depart="0.08" departLane="1" departPos="371.21999999999997" departSpeed="38.53" color="18,213,101" route="r_1"/>
<vehicle id="14" depart="0.08" departLane="1" departPos="277.64" departSpeed="41.49" color="238,110,212" route="r_0"/>
<vehicle id="15" depart="1.68" departLane="1" departPos="2.68" departSpeed="35.67" color="95,16,26" route="r_0"/>
<vehicle id="16" depart="3.36" departLane="1" departPos="9.579999999999984" departSpeed="38.33" color="108,176,252" route="r_1"/>
<vehicle id="17" depart="3.56" departLane="2" departPos="11.21999999999997" departSpeed="44.83" color="128,54,5" route="r_1"/>
<vehicle id="18" depart="5.4" departLane="1" departPos="9.949999999999989" departSpeed="31.19" color="99,235,120" route="r_1"/>
<vehicle id="19" depart="7.16" departLane="2" departPos="2.09" departSpeed="35.95" color="141,198,40" route="r_0"/>
<vehicle id="20" depart="9.72" departLane="2" departPos="2.71" departSpeed="33.47" color="118,146,180" route="r_0"/>
<vehicle id="21" depart="10.64" departLane="2" departPos="1.87" departSpeed="34.87" color="88,132,2" route="r_0"/>
<vehicle id="22" depart="11.2" departLane="1" departPos="13.509999999999991" departSpeed="24.66" color="236,95,3" route="r_1"/>
<vehicle id="23" depart="13.24" departLane="2" departPos="9.870000000000005" departSpeed="31.32" color="220,111,211" route="r_1"/>
<vehicle id="24" depart="13.6" departLane="1" departPos="17.19999999999999" departSpeed="24.58" color="84,253,233" route="r_1"/>
<vehicle id="25" depart="13.68" departLane="1" departPos="3.85" departSpeed="37.92" color="152,75,48" route="r_0"/>
<vehicle id="26" depart="14.28" departLane="2" departPos="2.95" departSpeed="26.78" color="50,225,109" route="r_0"/>
<vehicle id="27" depart="14.96" departLane="1" departPos="9.649999999999977" departSpeed="24.27" color="100,19,91" route="r_1"/>
<vehicle id="28" depart="15.76" departLane="2" departPos="10.049999999999955" departSpeed="34.65" color="145,161,94" route="r_1"/>
<vehicle id="29" depart="17.24" departLane="2" departPos="8.669999999999959" departSpeed="32.82" color="59,38,129" route="r_1"/>
<vehicle id="30" depart="18.4" departLane="1" departPos="10.849999999999966" departSpeed="30.83" color="106,208,44" route="r_1"/>
<vehicle id="31" depart="20.92" departLane="1" departPos="2.3" departSpeed="39.17" color="205,206,171" route="r_0"/>
<vehicle id="32" depart="22.36" departLane="2" departPos="10.599999999999966" departSpeed="35.27" color="21,122,1" route="r_1"/>
<vehicle id="33" depart="22.76" departLane="2" departPos="4.19" departSpeed="22.62" color="55,57,255" route="r_0"/>
<vehicle id="34" depart="25.28" departLane="1" departPos="7.909999999999968" departSpeed="33.68" color="236,182,226" route="r_1"/>
<vehicle id="35" depart="25.52" departLane="2" departPos="3.52" departSpeed="22.57" color="9,94,103" route="r_0"/>
<vehicle id="36" depart="26.08" departLane="2" departPos="7.979999999999961" departSpeed="37.21" color="42,23,182" route="r_1"/>
<vehicle id="37" depart="27.12" departLane="2" departPos="8.529999999999973" departSpeed="36.41" color="3,90,83" route="r_1"/>
<vehicle id="38" depart="28.12" departLane="1" departPos="18.430000000000007" departSpeed="25.2" color="233,21,84" route="r_1"/>
<vehicle id="39" depart="29.04" departLane="2" departPos="3.64" departSpeed="21.87" color="4,40,175" route="r_0"/>
<vehicle id="40" depart="31.36" departLane="2" departPos="10.779999999999973" departSpeed="34.29" color="101,61,79" route="r_1"/>
<vehicle id="41" depart="32.72" departLane="2" departPos="9.0" departSpeed="36.33" color="145,19,209" route="r_1"/>
<vehicle id="42" depart="33.64" departLane="2" departPos="9.740000000000009" departSpeed="35.56" color="2,147,217" route="r_1"/>
<vehicle id="43" depart="35.0" departLane="2" departPos="9.769999999999982" departSpeed="35.98" color="83,219,66" route="r_1"/>
<vehicle id="44" depart="36.04" departLane="2" departPos="8.979999999999961" departSpeed="35.84" color="44,89,187" route="r_1"/>
<vehicle id="45" depart="36.64" departLane="1" departPos="21.639999999999986" departSpeed="23.25" color="17,55,99" route="r_1"/>
<vehicle id="46" depart="36.88" departLane="2" departPos="8.409999999999968" departSpeed="36.81" color="18,143,102" route="r_1"/>
<vehicle id="47" depart="38.2" departLane="1" departPos="3.89" departSpeed="39.19" color="20,86,47" route="r_0"/>
<vehicle id="48" depart="38.52" departLane="2" departPos="9.899999999999977" departSpeed="34.05" color="119,69,97" route="r_1"/>
<vehicle id="49" depart="38.92" departLane="2" departPos="8.399999999999977" departSpeed="33.47" color="101,165,90" route="r_1"/>
<vehicle id="50" depart="39.76" departLane="1" departPos="3.41" departSpeed="40.28" color="156,8,227" route="r_0"/>
<vehicle id="51" depart="40.24" departLane="2" departPos="8.839999999999975" departSpeed="34.1" color="210,136,46" route="r_1"/>
<vehicle id="52" depart="40.36" departLane="1" departPos="21.379999999999995" departSpeed="22.52" color="70,111,155" route="r_1"/>
<vehicle id="53" depart="40.72" departLane="1" departPos="4.82" departSpeed="39.52" color="232,98,67" route="r_0"/>
<vehicle id="54" depart="41.16" departLane="2" departPos="9.769999999999982" departSpeed="33.53" color="221,28,117" route="r_1"/>
<vehicle id="55" depart="42.84" departLane="1" departPos="2.28" departSpeed="33.04" color="115,13,203" route="r_0"/>
<vehicle id="56" depart="42.88" departLane="2" departPos="2.27" departSpeed="27.3" color="145,236,85" route="r_0"/>
<vehicle id="57" depart="43.24" departLane="2" departPos="8.569999999999993" departSpeed="36.87" color="114,184,105" route="r_1"/>
<vehicle id="58" depart="46.4" departLane="1" departPos="8.909999999999968" departSpeed="32.64" color="220,164,52" route="r_1"/>
<vehicle id="59" depart="46.68" departLane="1" departPos="2.44" departSpeed="38.16" color="232,255,172" route="r_0"/>
<vehicle id="60" depart="47.2" departLane="2" departPos="2.84" departSpeed="31.74" color="129,46,204" route="r_0"/>
<vehicle id="61" depart="47.84" departLane="2" departPos="8.509999999999991" departSpeed="33.19" color="232,169,126" route="r_1"/>
<vehicle id="62" depart="48.08" departLane="1" departPos="17.620000000000005" departSpeed="24.67" color="237,29,23" route="r_1"/>
<vehicle id="63" depart="48.24" departLane="1" departPos="3.73" departSpeed="40.85" color="192,238,180" route="r_0"/>
<vehicle id="64" depart="49.64" departLane="1" departPos="8.370000000000005" departSpeed="24.64" color="87,157,226" route="r_1"/>
<vehicle id="65" depart="50.4" departLane="2" departPos="10.310000000000002" departSpeed="29.33" color="150,42,246" route="r_1"/>
<vehicle id="66" depart="51.28" departLane="1" departPos="7.839999999999975" departSpeed="24.26" color="215,241,8" route="r_1"/>
<vehicle id="67" depart="51.68" departLane="2" departPos="9.939999999999998" departSpeed="29.49" color="8,104,221" route="r_1"/>
<vehicle id="68" depart="52.36" departLane="2" departPos="8.680000000000007" departSpeed="29.61" color="205,244,209" route="r_1"/>
<vehicle id="69" depart="53.12" departLane="2" departPos="10.729999999999961" departSpeed="29.01" color="29,213,25" route="r_1"/>
<vehicle id="70" depart="53.68" departLane="2" departPos="7.939999999999998" departSpeed="28.8" color="114,58,83" route="r_1"/>
<vehicle id="71" depart="53.76" departLane="2" departPos="2.7" departSpeed="29.44" color="79,170,177" route="r_0"/>
<vehicle id="72" depart="53.84" departLane="1" departPos="15.549999999999955" departSpeed="24.24" color="231,88,51" route="r_1"/>
<vehicle id="73" depart="54.96" departLane="1" departPos="8.069999999999993" departSpeed="25.31" color="151,204,231" route="r_1"/>
<vehicle id="74" depart="55.04" departLane="2" departPos="9.729999999999961" departSpeed="30.57" color="18,31,0" route="r_1"/>
<vehicle id="75" depart="56.0" departLane="1" departPos="7.229999999999961" departSpeed="26.3" color="140,65,7" route="r_1"/>
<vehicle id="76" depart="56.2" departLane="2" departPos="8.5" departSpeed="32.2" color="146,205,49" route="r_1"/>
<vehicle id="77" depart="56.52" departLane="1" departPos="3.71" departSpeed="44.66" color="216,225,96" route="r_0"/>
<vehicle id="78" depart="57.64" departLane="2" departPos="2.2" departSpeed="33.34" color="13,34,43" route="r_0"/>
<vehicle id="79" depart="58.84" departLane="1" departPos="8.259999999999991" departSpeed="34.41" color="12,128,163" route="r_1"/>
<vehicle id="80" depart="59.0" departLane="2" departPos="8.620000000000005" departSpeed="35.09" color="19,239,227" route="r_1"/>
<vehicle id="81" depart="59.04" departLane="2" departPos="3.28" departSpeed="30.85" color="142,88,117" route="r_0"/>
<vehicle id="82" depart="61.8" departLane="1" departPos="5.07" departSpeed="41.79" color="110,85,43" route="r_0"/>
<vehicle id="83" depart="61.8" departLane="1" departPos="7.259999999999991" departSpeed="29.16" color="251,255,175" route="r_1"/>
<vehicle id="84" depart="64.12" departLane="2" departPos="10.159999999999968" departSpeed="39.83" color="173,233,103" route="r_1"/>
<vehicle id="85" depart="64.6" departLane="1" departPos="2.44" departSpeed="45.99" color="124,4,162" route="r_0"/>
<vehicle id="86" depart="64.72" departLane="1" departPos="9.569999999999993" departSpeed="32.27" color="135,3,197" route="r_1"/>
<vehicle id="87" depart="65.68" departLane="1" departPos="2.78" departSpeed="43.37" color="248,213,204" route="r_0"/>
<vehicle id="88" depart="65.88" departLane="2" departPos="9.839999999999975" departSpeed="40.44" color="142,135,234" route="r_1"/>
<vehicle id="89" depart="66.76" departLane="2" departPos="2.76" departSpeed="36.35" color="198,195,203" route="r_0"/>
<vehicle id="90" depart="66.96" departLane="2" departPos="7.609999999999957" departSpeed="39.47" color="13,65,17" route="r_1"/>
<vehicle id="91" depart="67.48" departLane="1" departPos="7.75" departSpeed="29.95" color="224,180,181" route="r_1"/>
<vehicle id="92" depart="69.44" departLane="1" departPos="7.409999999999968" departSpeed="28.6" color="82,95,201" route="r_1"/>
<vehicle id="93" depart="69.88" departLane="1" departPos="2.56" departSpeed="39.03" color="86,57,106" route="r_0"/>
<vehicle id="94" depart="70.4" departLane="2" departPos="2.2" departSpeed="32.73" color="221,220,235" route="r_0"/>
<vehicle id="95" depart="70.92" departLane="1" departPos="3.17" departSpeed="38.39" color="245,253,20" route="r_0"/>
<vehicle id="96" depart="71.64" departLane="1" departPos="8.240000000000009" departSpeed="36.72" color="101,66,103" route="r_1"/>
<vehicle id="97" depart="73.12" departLane="1" departPos="2.53" departSpeed="35.61" color="254,122,253" route="r_0"/>
<vehicle id="98" depart="73.44" departLane="2" departPos="4.29" departSpeed="26.96" color="111,75,0" route="r_0"/>
<vehicle id="99" depart="74.28" departLane="1" departPos="3.7" departSpeed="34.36" color="230,170,13" route="r_0"/>
<vehicle id="100" depart="75.84" departLane="1" departPos="4.26" departSpeed="34.6" color="186,89,98" route="r_0"/>
<vehicle id="101" depart="76.6" departLane="1" departPos="2.28" departSpeed="35.16" color="74,129,181" route="r_0"/>
<vehicle id="102" depart="77.64" departLane="1" departPos="4.52" departSpeed="35.68" color="239,113,95" route="r_0"/>
<vehicle id="103" depart="77.92" departLane="1" departPos="13.5" departSpeed="25.02" color="66,47,205" route="r_1"/>
<vehicle id="104" depart="78.04" departLane="2" departPos="9.620000000000005" departSpeed="48.33" color="70,254,64" route="r_1"/>
<vehicle id="105" depart="78.96" departLane="1" departPos="9.370000000000005" departSpeed="25.21" color="82,90,170" route="r_1"/>
<vehicle id="106" depart="79.08" departLane="1" departPos="3.46" departSpeed="36.36" color="231,64,152" route="r_0"/>
<vehicle id="107" depart="80.6" departLane="2" departPos="7.5" departSpeed="33.39" color="113,217,15" route="r_1"/>
<vehicle id="108" depart="80.8" departLane="1" departPos="5.22" departSpeed="37.08" color="86,129,13" route="r_0"/>
<vehicle id="109" depart="84.44" departLane="2" departPos="2.93" departSpeed="34.13" color="44,77,41" route="r_0"/>
<vehicle id="110" depart="84.8" departLane="1" departPos="2.73" departSpeed="40.79" color="250,164,96" route="r_0"/>
<vehicle id="111" depart="87.08" departLane="1" departPos="3.16" departSpeed="33.58" color="157,73,178" route="r_0"/>
<vehicle id="112" depart="87.48" departLane="2" departPos="4.06" departSpeed="22.67" color="189,26,125" route="r_0"/>
<vehicle id="113" depart="88.2" departLane="1" departPos="2.65" departSpeed="35.66" color="29,9,253" route="r_0"/>
<vehicle id="114" depart="89.16" departLane="1" departPos="3.75" departSpeed="35.26" color="25,27,149" route="r_0"/>
<vehicle id="115" depart="89.68" departLane="1" departPos="4.2" departSpeed="32.51" color="111,125,39" route="r_0"/>
<vehicle id="116" depart="91.84" departLane="2" departPos="10.319999999999993" departSpeed="37.73" color="221,121,76" route="r_1"/>
<vehicle id="117" depart="92.0" departLane="1" departPos="8.599999999999966" departSpeed="25.69" color="79,53,6" route="r_1"/>
<vehicle id="118" depart="93.48" departLane="2" departPos="2.84" departSpeed="34.8" color="20,109,250" route="r_0"/>
<vehicle id="119" depart="94.56" departLane="1" departPos="10.21999999999997" departSpeed="30.42" color="189,239,78" route="r_1"/>
<vehicle id="120" depart="100.16" departLane="1" departPos="10.319999999999993" departSpeed="29.03" color="113,134,17" route="r_1"/>
<vehicle id="121" depart="100.88" departLane="2" departPos="4.85" departSpeed="22.89" color="230,62,60" route="r_0"/>
<vehicle id="122" depart="103.12" departLane="1" departPos="5.31" departSpeed="37.84" color="149,134,228" route="r_0"/>
<vehicle id="123" depart="104.68" departLane="2" departPos="10.370000000000005" departSpeed="42.58" color="116,99,218" route="r_1"/>
<vehicle id="124" depart="106.08" departLane="2" departPos="3.36" departSpeed="28.16" color="175,138,56" route="r_0"/>
<vehicle id="125" depart="106.2" departLane="1" departPos="10.859999999999957" departSpeed="34.61" color="233,167,193" route="r_1"/>
<vehicle id="126" depart="106.68" departLane="2" departPos="9.310000000000002" departSpeed="42.75" color="218,12,140" route="r_1"/>
<vehicle id="127" depart="108.64" departLane="1" departPos="4.83" departSpeed="43.58" color="20,154,88" route="r_0"/>
<vehicle id="128" depart="109.68" departLane="1" departPos="9.120000000000005" departSpeed="36.86" color="104,198,175" route="r_1"/>
<vehicle id="129" depart="110.48" departLane="1" departPos="8.139999999999986" departSpeed="30.11" color="22,223,162" route="r_1"/>
<vehicle id="130" depart="110.56" departLane="2" departPos="9.25" departSpeed="39.15" color="199,61,216" route="r_1"/>
<vehicle id="131" depart="111.76" departLane="2" departPos="8.0" departSpeed="38.39" color="174,34,179" route="r_1"/>
<vehicle id="132" depart="111.88" departLane="2" departPos="5.49" departSpeed="24.1" color="72,102,237" route="r_0"/>
<vehicle id="133" depart="113.2" departLane="1" departPos="5.06" departSpeed="48.38" color="53,146,120" route="r_0"/>
<vehicle id="134" depart="113.24" departLane="2" departPos="9.560000000000002" departSpeed="38.82" color="143,82,198" route="r_1"/>
<vehicle id="135" depart="114.48" departLane="1" departPos="4.6" departSpeed="39.72" color="197,107,68" route="r_0"/>
<vehicle id="136" depart="116.0" departLane="1" departPos="5.19" departSpeed="38.75" color="251,0,149" route="r_0"/>
<vehicle id="137" depart="116.48" departLane="2" departPos="4.7" departSpeed="36.54" color="45,156,196" route="r_0"/>
<vehicle id="138" depart="117.08" departLane="1" departPos="10.729999999999961" departSpeed="29.19" color="193,120,121" route="r_1"/>
<vehicle id="139" depart="118.64" departLane="1" departPos="10.379999999999995" departSpeed="38.29" color="115,214,119" route="r_1"/>
<vehicle id="140" depart="124.48" departLane="2" departPos="5.92" departSpeed="36.68" color="58,176,132" route="r_0"/>
<vehicle id="141" depart="127.96" departLane="1" departPos="10.579999999999984" departSpeed="28.5" color="173,78,238" route="r_1"/>
<vehicle id="142" depart="128.12" departLane="1" departPos="3.11" departSpeed="35.73" color="243,41,148" route="r_0"/>
<vehicle id="143" depart="128.44" departLane="2" departPos="11.079999999999984" departSpeed="33.35" color="4,46,189" route="r_1"/>
<vehicle id="144" depart="129.16" departLane="2" departPos="4.73" departSpeed="23.96" color="90,38,26" route="r_0"/>
<vehicle id="145" depart="129.4" departLane="2" departPos="9.229999999999961" departSpeed="33.45" color="11,251,92" route="r_1"/>
<vehicle id="146" depart="129.4" departLane="1" departPos="10.939999999999998" departSpeed="29.53" color="128,189,214" route="r_1"/>
<vehicle id="147" depart="129.68" departLane="1" departPos="3.47" departSpeed="36.39" color="110,81,104" route="r_0"/>
<vehicle id="148" depart="130.28" departLane="2" departPos="9.899999999999977" departSpeed="33.93" color="124,226,234" route="r_1"/>
<vehicle id="149" depart="130.36" departLane="1" departPos="4.47" departSpeed="37.6" color="225,53,46" route="r_0"/>
<vehicle id="150" depart="130.76" departLane="1" departPos="9.029999999999973" departSpeed="29.96" color="5,243,207" route="r_1"/>
<vehicle id="151" depart="131.4" departLane="1" departPos="3.56" departSpeed="37.11" color="237,197,170" route="r_0"/>
<vehicle id="152" depart="131.92" departLane="2" departPos="9.370000000000005" departSpeed="36.32" color="182,161,8" route="r_1"/>
<vehicle id="153" depart="132.24" departLane="1" departPos="9.779999999999973" departSpeed="32.3" color="144,234,154" route="r_1"/>
<vehicle id="154" depart="133.04" departLane="2" departPos="3.1" departSpeed="26.22" color="201,8,83" route="r_0"/>
<vehicle id="155" depart="133.6" departLane="1" departPos="2.92" departSpeed="32.54" color="70,240,61" route="r_0"/>
<vehicle id="156" depart="134.68" departLane="1" departPos="3.97" departSpeed="33.68" color="63,85,47" route="r_0"/>
<vehicle id="157" depart="135.44" departLane="1" departPos="4.19" departSpeed="35.16" color="172,36,182" route="r_0"/>
<vehicle id="158" depart="135.8" departLane="2" departPos="2.46" departSpeed="31.66" color="190,233,168" route="r_0"/>
<vehicle id="159" depart="135.92" departLane="1" departPos="10.269999999999982" departSpeed="26.9" color="149,239,87" route="r_1"/>
<vehicle id="160" depart="137.16" departLane="2" departPos="10.399999999999977" departSpeed="32.55" color="223,131,162" route="r_1"/>
<vehicle id="161" depart="145.12" departLane="2" departPos="9.919999999999959" departSpeed="34.51" color="126,145,68" route="r_1"/>
<vehicle id="162" depart="145.64" departLane="2" departPos="9.669999999999959" departSpeed="35.22" color="194,132,11" route="r_1"/>
<vehicle id="163" depart="146.16" departLane="2" departPos="9.629999999999995" departSpeed="32.85" color="163,118,216" route="r_1"/>
<vehicle id="164" depart="146.88" departLane="1" departPos="23.089999999999975" departSpeed="23.57" color="148,70,175" route="r_1"/>
<vehicle id="165" depart="147.12" departLane="2" departPos="9.379999999999995" departSpeed="35.7" color="80,234,124" route="r_1"/>
<vehicle id="166" depart="148.56" departLane="2" departPos="3.72" departSpeed="30.4" color="1,121,249" route="r_0"/>
<vehicle id="167" depart="148.92" departLane="1" departPos="3.63" departSpeed="36.38" color="171,106,235" route="r_0"/>
<vehicle id="168" depart="149.72" departLane="2" departPos="8.669999999999959" departSpeed="36.93" color="187,181,214" route="r_1"/>
<vehicle id="169" depart="149.8" departLane="1" departPos="3.6" departSpeed="33.48" color="170,215,186" route="r_0"/>
<vehicle id="170" depart="150.04" departLane="2" departPos="4.39" departSpeed="24.06" color="22,38,208" route="r_0"/>
<vehicle id="171" depart="150.92" departLane="2" departPos="10.389999999999986" departSpeed="37.72" color="208,138,68" route="r_1"/>
<vehicle id="172" depart="151.76" departLane="1" departPos="3.34" departSpeed="33.4" color="135,216,174" route="r_0"/>
<vehicle id="173" depart="152.2" departLane="1" departPos="23.089999999999975" departSpeed="24.44" color="77,190,220" route="r_1"/>
<vehicle id="174" depart="152.32" departLane="2" departPos="7.909999999999968" departSpeed="32.85" color="27,202,158" route="r_1"/>
<vehicle id="175" depart="152.68" departLane="1" departPos="3.25" departSpeed="34.34" color="7,16,232" route="r_0"/>
<vehicle id="176" depart="154.48" departLane="2" departPos="4.5" departSpeed="22.99" color="218,3,240" route="r_0"/>
<vehicle id="177" depart="154.68" departLane="1" departPos="6.11" departSpeed="34.89" color="55,25,151" route="r_0"/>
<vehicle id="178" depart="157.16" departLane="1" departPos="4.0" departSpeed="32.4" color="93,29,207" route="r_0"/>
<vehicle id="179" depart="157.76" departLane="2" departPos="5.82" departSpeed="22.86" color="89,122,160" route="r_0"/>
<vehicle id="180" depart="158.4" departLane="2" departPos="10.019999999999982" departSpeed="40.17" color="52,101,14" route="r_1"/>
<vehicle id="181" depart="160.64" departLane="1" departPos="3.92" departSpeed="30.93" color="74,103,62" route="r_0"/>
<vehicle id="182" depart="161.28" departLane="1" departPos="8.75" departSpeed="30.5" color="93,81,161" route="r_1"/>
<vehicle id="183" depart="161.68" departLane="2" departPos="7.359999999999957" departSpeed="35.1" color="144,140,76" route="r_1"/>
<vehicle id="184" depart="162.8" departLane="2" departPos="6.01" departSpeed="21.57" color="173,165,51" route="r_0"/>
<vehicle id="185" depart="163.04" departLane="2" departPos="7.899999999999977" departSpeed="34.68" color="78,202,94" route="r_1"/>
<vehicle id="186" depart="163.92" departLane="2" departPos="8.889999999999986" departSpeed="34.76" color="61,154,83" route="r_1"/>
<vehicle id="187" depart="164.44" departLane="2" departPos="5.21" departSpeed="21.84" color="151,108,43" route="r_0"/>
<vehicle id="188" depart="164.52" departLane="1" departPos="4.51" departSpeed="30.22" color="245,37,219" route="r_0"/>
<vehicle id="189" depart="165.36" departLane="2" departPos="10.129999999999995" departSpeed="34.06" color="220,236,154" route="r_1"/>
<vehicle id="190" depart="165.8" departLane="2" departPos="5.58" departSpeed="22.24" color="190,152,27" route="r_0"/>
<vehicle id="191" depart="166.56" departLane="1" departPos="3.65" departSpeed="30.48" color="201,108,232" route="r_0"/>
<vehicle id="192" depart="166.64" departLane="1" departPos="8.159999999999968" departSpeed="25.98" color="144,190,130" route="r_1"/>
<vehicle id="193" depart="166.72" departLane="2" departPos="10.060000000000002" departSpeed="33.97" color="170,76,163" route="r_1"/>
<vehicle id="194" depart="167.4" departLane="2" departPos="10.949999999999989" departSpeed="34.67" color="205,220,12" route="r_1"/>
<vehicle id="195" depart="167.8" departLane="1" departPos="3.65" departSpeed="30.22" color="21,113,149" route="r_0"/>
<vehicle id="196" depart="168.44" departLane="2" departPos="5.94" departSpeed="21.49" color="6,31,205" route="r_0"/>
<vehicle id="197" depart="169.16" departLane="1" departPos="4.86" departSpeed="29.64" color="108,73,192" route="r_0"/>
<vehicle id="198" depart="170.2" departLane="1" departPos="8.269999999999982" departSpeed="29.9" color="197,124,52" route="r_1"/>
<vehicle id="199" depart="172.12" departLane="1" departPos="3.51" departSpeed="34.28" color="235,36,89" route="r_0"/>
<vehicle id="200" depart="173.2" departLane="1" departPos="4.22" departSpeed="33.71" color="95,53,60" route="r_0"/>
<vehicle id="201" depart="173.24" departLane="1" departPos="10.079999999999984" departSpeed="28.54" color="206,127,130" route="r_1"/>
<vehicle id="202" depart="174.0" departLane="1" departPos="4.07" departSpeed="33.74" color="180,120,192" route="r_0"/>
<vehicle id="203" depart="174.8" departLane="1" departPos="4.05" departSpeed="34.58" color="233,21,182" route="r_0"/>
<vehicle id="204" depart="175.68" departLane="1" departPos="3.98" departSpeed="34.4" color="199,88,114" route="r_0"/>
<vehicle id="205" depart="176.92" departLane="2" departPos="4.11" departSpeed="27.11" color="48,179,199" route="r_0"/>
<vehicle id="206" depart="177.24" departLane="1" departPos="4.62" departSpeed="36.35" color="139,141,215" route="r_0"/>
<vehicle id="207" depart="177.96" departLane="1" departPos="23.299999999999955" departSpeed="23.88" color="146,87,209" route="r_1"/>
<vehicle id="208" depart="179.04" departLane="1" departPos="5.64" departSpeed="34.97" color="109,21,232" route="r_0"/>
<vehicle id="209" depart="179.04" departLane="2" departPos="8.129999999999995" departSpeed="30.58" color="237,210,216" route="r_1"/>
<vehicle id="210" depart="179.56" departLane="1" departPos="22.22999999999996" departSpeed="24.81" color="73,197,166" route="r_1"/>
<vehicle id="211" depart="179.64" departLane="2" departPos="8.339999999999975" departSpeed="29.76" color="222,15,93" route="r_1"/>
<vehicle id="212" depart="179.72" departLane="1" departPos="3.18" departSpeed="35.17" color="233,234,221" route="r_0"/>
<vehicle id="213" depart="180.48" departLane="2" departPos="3.82" departSpeed="32.46" color="100,43,83" route="r_0"/>
<vehicle id="214" depart="180.64" departLane="2" departPos="10.979999999999961" departSpeed="29.15" color="11,4,111" route="r_1"/>
<vehicle id="215" depart="181.08" departLane="1" departPos="22.279999999999973" departSpeed="23.73" color="19,141,176" route="r_1"/>
<vehicle id="216" depart="181.36" departLane="2" departPos="10.930000000000007" departSpeed="28.69" color="88,18,99" route="r_1"/>
<vehicle id="217" depart="181.96" departLane="1" departPos="9.70999999999998" departSpeed="23.69" color="117,214,238" route="r_1"/>
<vehicle id="218" depart="182.28" departLane="2" departPos="9.939999999999998" departSpeed="28.08" color="25,5,211" route="r_1"/>
<vehicle id="219" depart="183.16" departLane="2" departPos="8.430000000000007" departSpeed="28.83" color="249,185,238" route="r_1"/>
<vehicle id="220" depart="184.24" departLane="2" departPos="9.089999999999975" departSpeed="28.79" color="164,114,147" route="r_1"/>
<vehicle id="221" depart="185.8" departLane="2" departPos="8.96999999999997" departSpeed="29.73" color="97,214,130" route="r_1"/>
<vehicle id="222" depart="186.24" departLane="1" departPos="24.839999999999975" departSpeed="23.21" color="47,188,71" route="r_1"/>
<vehicle id="223" depart="187.4" departLane="1" departPos="5.82" departSpeed="34.32" color="11,17,177" route="r_0"/>
<vehicle id="224" depart="187.96" departLane="2" departPos="9.899999999999977" departSpeed="26.75" color="161,2,253" route="r_1"/>
<vehicle id="225" depart="188.52" departLane="1" departPos="10.71999999999997" departSpeed="23.19" color="59,119,214" route="r_1"/>
<vehicle id="226" depart="189.08" departLane="2" departPos="8.039999999999964" departSpeed="27.08" color="122,90,193" route="r_1"/>
<vehicle id="227" depart="189.92" departLane="1" departPos="7.449999999999989" departSpeed="22.89" color="161,95,226" route="r_1"/>
<vehicle id="228" depart="190.16" departLane="1" departPos="4.04" departSpeed="26.4" color="121,174,25" route="r_0"/>
<vehicle id="229" depart="190.52" departLane="2" departPos="4.43" departSpeed="23.59" color="117,56,61" route="r_0"/>
<vehicle id="230" depart="191.52" departLane="1" departPos="10.149999999999977" departSpeed="26.21" color="2,207,171" route="r_1"/>
<vehicle id="231" depart="192.48" departLane="1" departPos="8.620000000000005" departSpeed="22.08" color="23,115,196" route="r_1"/>
<vehicle id="232" depart="193.24" departLane="2" departPos="9.990000000000009" departSpeed="29.16" color="38,62,217" route="r_1"/>
<vehicle id="233" depart="194.24" departLane="1" departPos="4.56" departSpeed="38.75" color="171,225,3" route="r_0"/>
<vehicle id="234" depart="194.6" departLane="2" departPos="10.439999999999998" departSpeed="27.98" color="124,155,202" route="r_1"/>
<vehicle id="235" depart="195.72" departLane="2" departPos="9.490000000000009" departSpeed="27.32" color="155,235,137" route="r_1"/>
<vehicle id="236" depart="196.76" departLane="2" departPos="10.060000000000002" departSpeed="28.77" color="157,127,206" route="r_1"/>
<vehicle id="237" depart="197.52" departLane="2" departPos="5.85" departSpeed="34.13" color="101,238,49" route="r_0"/>